*SPEF "1481-1998"
*DESIGN "FPA_final"
*DATE "Fri Dec 29 01:56:11 2017"
*VENDOR "Synopsys, Inc."
*PROGRAM "icc_shell"
*VERSION "G-2012.06-ICC-SP2"
*DESIGN_FLOW "PIN_CAP NONE"
*DIVIDER /
*DELIMITER :
*BUS_DELIMITER [ ]
*T_UNIT 1 NS
*C_UNIT 1 FF
*R_UNIT 1 OHM
*L_UNIT 1 HENRY

*NAME_MAP
*1 in1[1]
*2 in1[0]
*3 VDD
*4 VSS
*5 in1[9]
*6 in1[8]
*7 in1[7]
*8 in1[6]
*9 in1[5]
*10 in1[4]
*11 in1[3]
*12 in1[2]
*13 in1[17]
*14 in1[16]
*15 in1[15]
*16 in1[14]
*17 in1[13]
*18 in1[12]
*19 in1[11]
*20 in1[10]
*21 in1[25]
*22 in1[24]
*23 in1[23]
*24 in1[22]
*25 in1[21]
*26 in1[20]
*27 in1[19]
*28 in1[18]
*29 in2[1]
*30 in2[0]
*31 in1[31]
*32 in1[30]
*33 in1[29]
*34 in1[28]
*35 in1[27]
*36 in1[26]
*37 in2[9]
*38 in2[8]
*39 in2[7]
*40 in2[6]
*41 in2[5]
*42 in2[4]
*43 in2[3]
*44 in2[2]
*45 in2[17]
*46 in2[16]
*47 in2[15]
*48 in2[14]
*49 in2[13]
*50 in2[12]
*51 in2[11]
*52 in2[10]
*53 in2[25]
*54 in2[24]
*55 in2[23]
*56 in2[22]
*57 in2[21]
*58 in2[20]
*59 in2[19]
*60 in2[18]
*61 OUT[1]
*62 OUT[0]
*63 in2[31]
*64 in2[30]
*65 in2[29]
*66 in2[28]
*67 in2[27]
*68 in2[26]
*69 OUT[9]
*70 OUT[8]
*71 OUT[7]
*72 OUT[6]
*73 OUT[5]
*74 OUT[4]
*75 OUT[3]
*76 OUT[2]
*77 OUT[17]
*78 OUT[16]
*79 OUT[15]
*80 OUT[14]
*81 OUT[13]
*82 OUT[12]
*83 OUT[11]
*84 OUT[10]
*85 OUT[25]
*86 OUT[24]
*87 OUT[23]
*88 OUT[22]
*89 OUT[21]
*90 OUT[20]
*91 OUT[19]
*92 OUT[18]
*93 rst
*94 clk
*95 OUT[31]
*96 OUT[30]
*97 OUT[29]
*98 OUT[28]
*99 OUT[27]
*100 OUT[26]
*101 C\[30\]
*102 output_reg/U38
*103 B1/N_instance/U609
*104 B1/U412
*105 output_reg/N33
*106 output_reg/U4
*107 C\[29\]
*108 output_reg/U37
*109 B1/N_instance/U607
*110 output_reg/N32
*111 output_reg/out_reg_29_
*112 C\[28\]
*113 output_reg/U36
*114 B1/N_instance/U605
*115 output_reg/N31
*116 output_reg/out_reg_28_
*117 C\[27\]
*118 output_reg/U35
*119 B1/N_instance/U611
*120 output_reg/N30
*121 output_reg/out_reg_27_
*122 C\[26\]
*123 output_reg/U34
*124 B1/N_instance/U608
*125 B1/U413
*126 output_reg/N29
*127 output_reg/out_reg_26_
*128 C\[25\]
*129 output_reg/U33
*130 B1/N_instance/U606
*131 output_reg/N28
*132 output_reg/out_reg_25_
*133 C\[24\]
*134 output_reg/U32
*135 B1/N_instance/U604
*136 output_reg/N27
*137 output_reg/out_reg_24_
*138 C\[23\]
*139 output_reg/U31
*140 B1/N_instance/U610
*141 output_reg/N26
*142 output_reg/U5
*143 C\[31\]
*144 B1/U9
*145 output_reg/U2
*146 C\[0\]
*147 output_reg/U29
*148 B1/N_instance/U613
*149 output_reg/N3
*150 output_reg/out_reg_0_
*151 C\[1\]
*152 output_reg/U28
*153 B1/N_instance/U614
*154 output_reg/N4
*155 output_reg/out_reg_1_
*156 C\[2\]
*157 output_reg/U27
*158 B1/N_instance/U612
*159 output_reg/N5
*160 output_reg/out_reg_2_
*161 U1
*162 U2
*163 C\[20\]
*164 output_reg/U25
*165 B1/N_instance/U603
*166 output_reg/N23
*167 output_reg/out_reg_20_
*168 C\[22\]
*169 output_reg/U24
*170 B1/N_instance/U602
*171 output_reg/N25
*172 output_reg/out_reg_22_
*173 C\[7\]
*174 output_reg/U23
*175 B1/N_instance/U601
*176 output_reg/N10
*177 output_reg/out_reg_7_
*178 C\[19\]
*179 output_reg/U22
*180 B1/N_instance/U600
*181 output_reg/N22
*182 output_reg/out_reg_19_
*183 C\[16\]
*184 output_reg/U21
*185 B1/N_instance/U599
*186 output_reg/N19
*187 output_reg/out_reg_16_
*188 C\[18\]
*189 output_reg/U20
*190 B1/N_instance/U598
*191 output_reg/N21
*192 output_reg/out_reg_18_
*193 C\[17\]
*194 output_reg/U19
*195 B1/N_instance/U597
*196 output_reg/N20
*197 output_reg/out_reg_17_
*198 C\[5\]
*199 output_reg/U18
*200 B1/N_instance/U596
*201 output_reg/N8
*202 output_reg/out_reg_5_
*203 C\[3\]
*204 output_reg/U17
*205 B1/N_instance/U595
*206 output_reg/N6
*207 output_reg/out_reg_3_
*208 C\[9\]
*209 output_reg/U16
*210 B1/N_instance/U594
*211 output_reg/N12
*212 output_reg/out_reg_9_
*213 C\[8\]
*214 output_reg/U15
*215 B1/N_instance/U593
*216 output_reg/N11
*217 output_reg/out_reg_8_
*218 C\[10\]
*219 output_reg/U14
*220 B1/N_instance/U592
*221 output_reg/N13
*222 output_reg/out_reg_10_
*223 C\[21\]
*224 output_reg/U13
*225 B1/N_instance/U591
*226 output_reg/N24
*227 output_reg/U26
*228 C\[11\]
*229 output_reg/U12
*230 B1/N_instance/U590
*231 output_reg/N14
*232 output_reg/out_reg_11_
*233 C\[4\]
*234 output_reg/U11
*235 B1/N_instance/U589
*236 output_reg/N7
*237 output_reg/out_reg_4_
*238 C\[6\]
*239 output_reg/U10
*240 B1/N_instance/U588
*241 output_reg/N9
*242 output_reg/U1
*243 C\[15\]
*244 output_reg/U9
*245 B1/N_instance/U587
*246 output_reg/N18
*247 output_reg/out_reg_15_
*248 C\[14\]
*249 output_reg/U8
*250 B1/N_instance/U586
*251 output_reg/N17
*252 output_reg/out_reg_14_
*253 C\[13\]
*254 output_reg/U7
*255 B1/N_instance/U585
*256 output_reg/N16
*257 output_reg/out_reg_13_
*258 C\[12\]
*259 output_reg/U6
*260 B1/N_instance/U584
*261 output_reg/N15
*262 output_reg/out_reg_12_
*263 INV_X32_BC
*264 output_reg/out_reg_6_
*265 output_reg/out_reg_21_
*266 output_reg/out_reg_23_
*267 output_reg/out_reg_30_
*268 output_reg/out_reg_31_
*269 B1/add_0_root_add_102_ni/carry\[23\]
*270 B1/add_0_root_add_102_ni/U2
*271 B1/add_0_root_add_102_ni/U1_1_22
*272 B1/N268
*273 B1/U27
*274 B1/N315
*275 B1/add_103/U1_23
*276 B1/N291
*277 B1/add_0_root_add_102_ni/U1
*278 B1/add_0_root_add_102_ni/U1_1_1
*279 B1/U90
*280 B1/N292
*281 B1/add_103/U2
*282 B1/add_103/U1
*283 B1/N290
*284 B1/U94
*285 B1/add_0_root_add_102_ni/carry\[2\]
*286 B1/add_0_root_add_102_ni/U1_1_2
*287 B1/N293
*288 B1/add_103/U1_1
*289 B1/N289
*290 B1/U96
*291 B1/add_0_root_add_102_ni/carry\[3\]
*292 B1/add_0_root_add_102_ni/U1_1_3
*293 B1/N294
*294 B1/add_103/U1_2
*295 B1/N288
*296 B1/U98
*297 B1/add_0_root_add_102_ni/carry\[4\]
*298 B1/add_0_root_add_102_ni/U1_1_4
*299 B1/N295
*300 B1/add_103/U1_3
*301 B1/N287
*302 B1/U101
*303 B1/add_0_root_add_102_ni/carry\[5\]
*304 B1/add_0_root_add_102_ni/U1_1_5
*305 B1/N296
*306 B1/add_103/U1_4
*307 B1/N286
*308 B1/U104
*309 B1/add_0_root_add_102_ni/carry\[6\]
*310 B1/add_0_root_add_102_ni/U1_1_6
*311 B1/N297
*312 B1/add_103/U1_5
*313 B1/N285
*314 B1/U106
*315 B1/add_0_root_add_102_ni/carry\[7\]
*316 B1/add_0_root_add_102_ni/U1_1_7
*317 B1/N298
*318 B1/add_103/U1_6
*319 B1/N284
*320 B1/U108
*321 B1/add_0_root_add_102_ni/carry\[8\]
*322 B1/add_0_root_add_102_ni/U1_1_8
*323 B1/N299
*324 B1/add_103/U1_7
*325 B1/N283
*326 B1/U112
*327 B1/add_0_root_add_102_ni/carry\[9\]
*328 B1/add_0_root_add_102_ni/U1_1_9
*329 B1/N300
*330 B1/add_103/U1_8
*331 B1/N282
*332 B1/U114
*333 B1/add_0_root_add_102_ni/carry\[10\]
*334 B1/add_0_root_add_102_ni/U1_1_10
*335 B1/N301
*336 B1/add_103/U1_9
*337 B1/N281
*338 B1/U116
*339 B1/add_0_root_add_102_ni/carry\[11\]
*340 B1/add_0_root_add_102_ni/U1_1_11
*341 B1/N302
*342 B1/add_103/U1_10
*343 B1/N280
*344 B1/U118
*345 B1/add_0_root_add_102_ni/carry\[12\]
*346 B1/add_0_root_add_102_ni/U1_1_12
*347 B1/N303
*348 B1/add_103/U1_11
*349 B1/N279
*350 B1/U120
*351 B1/add_0_root_add_102_ni/carry\[13\]
*352 B1/add_0_root_add_102_ni/U1_1_13
*353 B1/N304
*354 B1/add_103/U1_12
*355 B1/N278
*356 B1/U122
*357 B1/add_0_root_add_102_ni/carry\[14\]
*358 B1/add_0_root_add_102_ni/U1_1_14
*359 B1/N305
*360 B1/add_103/U1_13
*361 B1/N277
*362 B1/U124
*363 B1/add_0_root_add_102_ni/carry\[15\]
*364 B1/add_0_root_add_102_ni/U1_1_15
*365 B1/N306
*366 B1/add_103/U1_14
*367 B1/N276
*368 B1/U126
*369 B1/add_0_root_add_102_ni/carry\[16\]
*370 B1/add_0_root_add_102_ni/U1_1_16
*371 B1/N307
*372 B1/add_103/U1_15
*373 B1/N275
*374 B1/U128
*375 B1/add_0_root_add_102_ni/carry\[17\]
*376 B1/add_0_root_add_102_ni/U1_1_17
*377 B1/N308
*378 B1/add_103/U1_16
*379 B1/N274
*380 B1/U130
*381 B1/add_0_root_add_102_ni/carry\[18\]
*382 B1/add_0_root_add_102_ni/U1_1_18
*383 B1/N309
*384 B1/add_103/U1_17
*385 B1/N273
*386 B1/U132
*387 B1/add_0_root_add_102_ni/carry\[19\]
*388 B1/add_0_root_add_102_ni/U1_1_19
*389 B1/N310
*390 B1/add_103/U1_18
*391 B1/N272
*392 B1/U134
*393 B1/add_0_root_add_102_ni/carry\[20\]
*394 B1/add_0_root_add_102_ni/U1_1_20
*395 B1/N311
*396 B1/add_103/U1_19
*397 B1/N271
*398 B1/U135
*399 B1/add_0_root_add_102_ni/carry\[21\]
*400 B1/add_0_root_add_102_ni/U1_1_21
*401 B1/N312
*402 B1/add_103/U1_20
*403 B1/N270
*404 B1/U136
*405 B1/add_0_root_add_102_ni/carry\[22\]
*406 B1/N313
*407 B1/add_103/U1_21
*408 B1/N269
*409 B1/U137
*410 B1/N314
*411 B1/add_103/U1_22
*412 B1/add_0_root_add_79_ni/carry\[23\]
*413 B1/add_0_root_add_79_ni/U2
*414 B1/add_0_root_add_79_ni/U1_1_22
*415 B1/N121
*416 B1/U19
*417 B1/N168
*418 B1/add_81/U1_23
*419 B1/N144
*420 B1/add_0_root_add_79_ni/U1
*421 B1/add_0_root_add_79_ni/U1_1_1
*422 B1/U83
*423 B1/N145
*424 B1/add_81/U2
*425 B1/add_81/U1
*426 B1/N143
*427 B1/U84
*428 B1/add_0_root_add_79_ni/carry\[2\]
*429 B1/add_0_root_add_79_ni/U1_1_2
*430 B1/N146
*431 B1/add_81/U1_1
*432 B1/N142
*433 B1/U86
*434 B1/add_0_root_add_79_ni/carry\[3\]
*435 B1/add_0_root_add_79_ni/U1_1_3
*436 B1/N147
*437 B1/add_81/U1_2
*438 B1/N141
*439 B1/U91
*440 B1/add_0_root_add_79_ni/carry\[4\]
*441 B1/add_0_root_add_79_ni/U1_1_4
*442 B1/N148
*443 B1/add_81/U1_3
*444 B1/N140
*445 B1/U95
*446 B1/add_0_root_add_79_ni/carry\[5\]
*447 B1/add_0_root_add_79_ni/U1_1_5
*448 B1/N149
*449 B1/add_81/U1_4
*450 B1/N139
*451 B1/U97
*452 B1/add_0_root_add_79_ni/carry\[6\]
*453 B1/add_0_root_add_79_ni/U1_1_6
*454 B1/N150
*455 B1/add_81/U1_5
*456 B1/N138
*457 B1/U99
*458 B1/add_0_root_add_79_ni/carry\[7\]
*459 B1/add_0_root_add_79_ni/U1_1_7
*460 B1/N151
*461 B1/add_81/U1_6
*462 B1/N137
*463 B1/U102
*464 B1/add_0_root_add_79_ni/carry\[8\]
*465 B1/add_0_root_add_79_ni/U1_1_8
*466 B1/N152
*467 B1/add_81/U1_7
*468 B1/N136
*469 B1/U103
*470 B1/add_0_root_add_79_ni/carry\[9\]
*471 B1/add_0_root_add_79_ni/U1_1_9
*472 B1/N153
*473 B1/add_81/U1_8
*474 B1/N135
*475 B1/U105
*476 B1/add_0_root_add_79_ni/carry\[10\]
*477 B1/add_0_root_add_79_ni/U1_1_10
*478 B1/N154
*479 B1/add_81/U1_9
*480 B1/N134
*481 B1/U107
*482 B1/add_0_root_add_79_ni/carry\[11\]
*483 B1/add_0_root_add_79_ni/U1_1_11
*484 B1/N155
*485 B1/add_81/U1_10
*486 B1/N133
*487 B1/U111
*488 B1/add_0_root_add_79_ni/carry\[12\]
*489 B1/add_0_root_add_79_ni/U1_1_12
*490 B1/N156
*491 B1/add_81/U1_11
*492 B1/N132
*493 B1/U113
*494 B1/add_0_root_add_79_ni/carry\[13\]
*495 B1/add_0_root_add_79_ni/U1_1_13
*496 B1/N157
*497 B1/add_81/U1_12
*498 B1/N131
*499 B1/U115
*500 B1/add_0_root_add_79_ni/carry\[14\]
*501 B1/add_0_root_add_79_ni/U1_1_14
*502 B1/N158
*503 B1/add_81/U1_13
*504 B1/N130
*505 B1/U117
*506 B1/add_0_root_add_79_ni/carry\[15\]
*507 B1/add_0_root_add_79_ni/U1_1_15
*508 B1/N159
*509 B1/add_81/U1_14
*510 B1/N129
*511 B1/U119
*512 B1/add_0_root_add_79_ni/carry\[16\]
*513 B1/add_0_root_add_79_ni/U1_1_16
*514 B1/N160
*515 B1/add_81/U1_15
*516 B1/N128
*517 B1/U121
*518 B1/add_0_root_add_79_ni/carry\[17\]
*519 B1/add_0_root_add_79_ni/U1_1_17
*520 B1/N161
*521 B1/add_81/U1_16
*522 B1/N127
*523 B1/U123
*524 B1/add_0_root_add_79_ni/carry\[18\]
*525 B1/add_0_root_add_79_ni/U1_1_18
*526 B1/N162
*527 B1/add_81/U1_17
*528 B1/N126
*529 B1/U125
*530 B1/add_0_root_add_79_ni/carry\[19\]
*531 B1/add_0_root_add_79_ni/U1_1_19
*532 B1/N163
*533 B1/add_81/U1_18
*534 B1/N125
*535 B1/U127
*536 B1/add_0_root_add_79_ni/carry\[20\]
*537 B1/add_0_root_add_79_ni/U1_1_20
*538 B1/N164
*539 B1/add_81/U1_19
*540 B1/N124
*541 B1/U129
*542 B1/add_0_root_add_79_ni/carry\[21\]
*543 B1/add_0_root_add_79_ni/U1_1_21
*544 B1/N165
*545 B1/add_81/U1_20
*546 B1/N123
*547 B1/U131
*548 B1/add_0_root_add_79_ni/carry\[22\]
*549 B1/N166
*550 B1/add_81/U1_21
*551 B1/N122
*552 B1/U133
*553 B1/N167
*554 B1/add_81/U1_22
*555 B1/add_0_root_add_111_ni/carry\[23\]
*556 B1/add_0_root_add_111_ni/U2
*557 B1/add_0_root_add_111_ni/U1_1_22
*558 B1/N342
*559 B1/U18
*560 B1/N389
*561 B1/U337
*562 B1/N365
*563 B1/add_0_root_add_111_ni/U1
*564 B1/add_0_root_add_111_ni/U1_1_1
*565 B1/U72
*566 B1/N366
*567 B1/U400
*568 B1/N364
*569 B1/U71
*570 B1/add_0_root_add_111_ni/carry\[2\]
*571 B1/add_0_root_add_111_ni/U1_1_2
*572 B1/N367
*573 B1/U405
*574 B1/N363
*575 B1/U69
*576 B1/add_0_root_add_111_ni/carry\[3\]
*577 B1/add_0_root_add_111_ni/U1_1_3
*578 B1/N368
*579 B1/U349
*580 B1/N362
*581 B1/U68
*582 B1/add_0_root_add_111_ni/carry\[4\]
*583 B1/add_0_root_add_111_ni/U1_1_4
*584 B1/N369
*585 B1/U333
*586 B1/N361
*587 B1/U67
*588 B1/add_0_root_add_111_ni/carry\[5\]
*589 B1/add_0_root_add_111_ni/U1_1_5
*590 B1/N370
*591 B1/U329
*592 B1/N360
*593 B1/U65
*594 B1/add_0_root_add_111_ni/carry\[6\]
*595 B1/add_0_root_add_111_ni/U1_1_6
*596 B1/N371
*597 B1/U325
*598 B1/N359
*599 B1/U63
*600 B1/add_0_root_add_111_ni/carry\[7\]
*601 B1/add_0_root_add_111_ni/U1_1_7
*602 B1/N372
*603 B1/U321
*604 B1/N358
*605 B1/U61
*606 B1/add_0_root_add_111_ni/carry\[8\]
*607 B1/add_0_root_add_111_ni/U1_1_8
*608 B1/N373
*609 B1/U317
*610 B1/N357
*611 B1/U59
*612 B1/add_0_root_add_111_ni/carry\[9\]
*613 B1/add_0_root_add_111_ni/U1_1_9
*614 B1/N374
*615 B1/U313
*616 B1/N356
*617 B1/U57
*618 B1/add_0_root_add_111_ni/carry\[10\]
*619 B1/add_0_root_add_111_ni/U1_1_10
*620 B1/N375
*621 B1/U308
*622 B1/N355
*623 B1/U55
*624 B1/add_0_root_add_111_ni/carry\[11\]
*625 B1/add_0_root_add_111_ni/U1_1_11
*626 B1/N376
*627 B1/U393
*628 B1/N354
*629 B1/U53
*630 B1/add_0_root_add_111_ni/carry\[12\]
*631 B1/add_0_root_add_111_ni/U1_1_12
*632 B1/N377
*633 B1/U396
*634 B1/N353
*635 B1/U51
*636 B1/add_0_root_add_111_ni/carry\[13\]
*637 B1/add_0_root_add_111_ni/U1_1_13
*638 B1/N378
*639 B1/U389
*640 B1/N352
*641 B1/U49
*642 B1/add_0_root_add_111_ni/carry\[14\]
*643 B1/add_0_root_add_111_ni/U1_1_14
*644 B1/N379
*645 B1/U385
*646 B1/N351
*647 B1/U47
*648 B1/add_0_root_add_111_ni/carry\[15\]
*649 B1/add_0_root_add_111_ni/U1_1_15
*650 B1/N380
*651 B1/U380
*652 B1/N350
*653 B1/U45
*654 B1/add_0_root_add_111_ni/carry\[16\]
*655 B1/add_0_root_add_111_ni/U1_1_16
*656 B1/N381
*657 B1/U375
*658 B1/N349
*659 B1/U42
*660 B1/add_0_root_add_111_ni/carry\[17\]
*661 B1/add_0_root_add_111_ni/U1_1_17
*662 B1/N382
*663 B1/U371
*664 B1/N348
*665 B1/U40
*666 B1/add_0_root_add_111_ni/carry\[18\]
*667 B1/add_0_root_add_111_ni/U1_1_18
*668 B1/N383
*669 B1/U367
*670 B1/N347
*671 B1/U38
*672 B1/add_0_root_add_111_ni/carry\[19\]
*673 B1/add_0_root_add_111_ni/U1_1_19
*674 B1/N384
*675 B1/U362
*676 B1/N346
*677 B1/U36
*678 B1/add_0_root_add_111_ni/carry\[20\]
*679 B1/add_0_root_add_111_ni/U1_1_20
*680 B1/N385
*681 B1/U357
*682 B1/N345
*683 B1/U34
*684 B1/add_0_root_add_111_ni/carry\[21\]
*685 B1/add_0_root_add_111_ni/U1_1_21
*686 B1/N386
*687 B1/U353
*688 B1/N344
*689 B1/U32
*690 B1/add_0_root_add_111_ni/carry\[22\]
*691 B1/N387
*692 B1/U345
*693 B1/N343
*694 B1/U29
*695 B1/N388
*696 B1/U341
*697 B1/add_0_root_add_89_ni/carry\[23\]
*698 B1/add_0_root_add_89_ni/U2
*699 B1/add_0_root_add_89_ni/U1_1_22
*700 B1/N195
*701 B1/U17
*702 B1/N242
*703 B1/U336
*704 B1/N218
*705 B1/add_0_root_add_89_ni/U1
*706 B1/add_0_root_add_89_ni/U1_1_1
*707 B1/U70
*708 B1/N219
*709 B1/U399
*710 B1/N217
*711 B1/U66
*712 B1/add_0_root_add_89_ni/carry\[2\]
*713 B1/add_0_root_add_89_ni/U1_1_2
*714 B1/N220
*715 B1/U403
*716 B1/N216
*717 B1/U64
*718 B1/add_0_root_add_89_ni/carry\[3\]
*719 B1/add_0_root_add_89_ni/U1_1_3
*720 B1/N221
*721 B1/U348
*722 B1/N215
*723 B1/U62
*724 B1/add_0_root_add_89_ni/carry\[4\]
*725 B1/add_0_root_add_89_ni/U1_1_4
*726 B1/N222
*727 B1/U332
*728 B1/N214
*729 B1/U60
*730 B1/add_0_root_add_89_ni/carry\[5\]
*731 B1/add_0_root_add_89_ni/U1_1_5
*732 B1/N223
*733 B1/U328
*734 B1/N213
*735 B1/U58
*736 B1/add_0_root_add_89_ni/carry\[6\]
*737 B1/add_0_root_add_89_ni/U1_1_6
*738 B1/N224
*739 B1/U324
*740 B1/N212
*741 B1/U56
*742 B1/add_0_root_add_89_ni/carry\[7\]
*743 B1/add_0_root_add_89_ni/U1_1_7
*744 B1/N225
*745 B1/U320
*746 B1/N211
*747 B1/U54
*748 B1/add_0_root_add_89_ni/carry\[8\]
*749 B1/add_0_root_add_89_ni/U1_1_8
*750 B1/N226
*751 B1/U316
*752 B1/N210
*753 B1/U52
*754 B1/add_0_root_add_89_ni/carry\[9\]
*755 B1/add_0_root_add_89_ni/U1_1_9
*756 B1/N227
*757 B1/U312
*758 B1/N209
*759 B1/U50
*760 B1/add_0_root_add_89_ni/carry\[10\]
*761 B1/add_0_root_add_89_ni/U1_1_10
*762 B1/N228
*763 B1/U307
*764 B1/N208
*765 B1/U48
*766 B1/add_0_root_add_89_ni/carry\[11\]
*767 B1/add_0_root_add_89_ni/U1_1_11
*768 B1/N229
*769 B1/U392
*770 B1/N207
*771 B1/U46
*772 B1/add_0_root_add_89_ni/carry\[12\]
*773 B1/add_0_root_add_89_ni/U1_1_12
*774 B1/N230
*775 B1/U395
*776 B1/N206
*777 B1/U44
*778 B1/add_0_root_add_89_ni/carry\[13\]
*779 B1/add_0_root_add_89_ni/U1_1_13
*780 B1/N231
*781 B1/U388
*782 B1/N205
*783 B1/U43
*784 B1/add_0_root_add_89_ni/carry\[14\]
*785 B1/add_0_root_add_89_ni/U1_1_14
*786 B1/N232
*787 B1/U384
*788 B1/N2040
*789 B1/U41
*790 B1/add_0_root_add_89_ni/carry\[15\]
*791 B1/add_0_root_add_89_ni/U1_1_15
*792 B1/N233
*793 B1/U379
*794 B1/N203
*795 B1/U39
*796 B1/add_0_root_add_89_ni/carry\[16\]
*797 B1/add_0_root_add_89_ni/U1_1_16
*798 B1/N234
*799 B1/U374
*800 B1/N202
*801 B1/U37
*802 B1/add_0_root_add_89_ni/carry\[17\]
*803 B1/add_0_root_add_89_ni/U1_1_17
*804 B1/N235
*805 B1/U370
*806 B1/N201
*807 B1/U35
*808 B1/add_0_root_add_89_ni/carry\[18\]
*809 B1/add_0_root_add_89_ni/U1_1_18
*810 B1/N236
*811 B1/U366
*812 B1/N200
*813 B1/U33
*814 B1/add_0_root_add_89_ni/carry\[19\]
*815 B1/add_0_root_add_89_ni/U1_1_19
*816 B1/N237
*817 B1/U361
*818 B1/N199
*819 B1/U30
*820 B1/add_0_root_add_89_ni/carry\[20\]
*821 B1/add_0_root_add_89_ni/U1_1_20
*822 B1/N238
*823 B1/U356
*824 B1/N198
*825 B1/U28
*826 B1/add_0_root_add_89_ni/carry\[21\]
*827 B1/add_0_root_add_89_ni/U1_1_21
*828 B1/N239
*829 B1/U352
*830 B1/N197
*831 B1/U26
*832 B1/add_0_root_add_89_ni/carry\[22\]
*833 B1/N240
*834 B1/U344
*835 B1/N196
*836 B1/U20
*837 B1/N241
*838 B1/U340
*839 B1/sub_53/n9
*840 B1/sub_53/U11
*841 B1/sub_53/U1
*842 B\[23\]
*843 operand2_reg/out_reg_23_
*844 B1/sub_53/U4
*845 B1/sub_48/U11
*846 B1/sub_48/U2
*847 B1/U416
*848 B1/U302
*849 B1/U285
*850 B1/U154
*851 B1/N50
*852 B1/srl_55/U152
*853 B1/srl_55/U149
*854 B1/srl_55/U22
*855 B1/srl_55/U21
*856 A\[30\]
*857 B1/sub_53/U10
*858 B1/sub_48/U2_7
*859 B1/U415
*860 B1/U297
*861 B1/U270
*862 B1/U152
*863 operand1_reg/out_reg_30_
*864 B1/sub_53/n2
*865 B1/sub_53/U2_7
*866 A\[29\]
*867 operand1_reg/out_reg_29_
*868 B1/sub_53/U9
*869 B1/sub_48/U2_6
*870 B1/U289
*871 B1/U287
*872 B1/U174
*873 B1/U173
*874 B1/U153
*875 B1/sub_53/n3
*876 B1/sub_53/U2_6
*877 A\[28\]
*878 B1/sub_53/U8
*879 B1/sub_48/U2_5
*880 B1/U292
*881 B1/U291
*882 B1/U171
*883 B1/U157
*884 operand1_reg/out_reg_28_
*885 B1/sub_53/n4
*886 B1/sub_53/U2_5
*887 A\[27\]
*888 B1/sub_53/U7
*889 B1/sub_48/U2_4
*890 B1/U284
*891 B1/U265
*892 B1/U148
*893 operand1_reg/out_reg_27_
*894 B1/sub_53/n5
*895 B1/sub_53/U2_4
*896 A\[26\]
*897 B1/sub_53/U6
*898 B1/sub_48/U2_3
*899 B1/U414
*900 B1/U281
*901 B1/U266
*902 B1/U167
*903 B1/U165
*904 operand1_reg/out_reg_26_
*905 B1/sub_53/n6
*906 B1/sub_53/U2_3
*907 A\[25\]
*908 B1/sub_53/U5
*909 B1/sub_48/U2_2
*910 B1/U300
*911 B1/U268
*912 B1/U145
*913 operand1_reg/out_reg_25_
*914 B1/sub_53/n7
*915 B1/sub_53/U2_2
*916 B1/sub_53/n1
*917 B1/sub_53/U3
*918 A\[23\]
*919 B1/U162
*920 operand1_reg/out_reg_23_
*921 B1/sub_48/U10
*922 B1/sub_48/U3
*923 B1/U269
*924 B1/U177
*925 B1/sub_53/carry\[1\]
*926 B1/sub_53/U2_1
*927 A\[24\]
*928 B1/sub_53/U2
*929 B1/sub_48/U2_1
*930 B1/U294
*931 B1/U273
*932 B1/U144
*933 operand1_reg/out_reg_24_
*934 B1/sub_53/n8
*935 B\[24\]
*936 B1/sub_48/U1
*937 B1/U293
*938 B1/U179
*939 B1/U164
*940 operand2_reg/out_reg_24_
*941 B1/sub_53/carry\[2\]
*942 B1/N51
*943 B1/srl_55/U20
*944 B\[25\]
*945 B1/sub_48/U4
*946 B1/U298
*947 B1/U160
*948 B1/U159
*949 operand2_reg/out_reg_25_
*950 B1/sub_53/carry\[3\]
*951 B1/N52
*952 B1/srl_55/U97
*953 B1/srl_55/U1
*954 B1/srl_55/U147
*955 B1/srl_55/U145
*956 B1/srl_55/U139
*957 B1/srl_55/U125
*958 B1/srl_55/U115
*959 B1/srl_55/U109
*960 B1/srl_55/U101
*961 B\[26\]
*962 B1/sub_48/U5
*963 B1/U279
*964 B1/U147
*965 operand2_reg/out_reg_26_
*966 B1/sub_53/carry\[4\]
*967 B1/N53
*968 B1/srl_55/U154
*969 B\[27\]
*970 B1/sub_48/U6
*971 B1/U417
*972 B1/U282
*973 B1/U168
*974 B1/U156
*975 operand2_reg/out_reg_27_
*976 B1/sub_53/carry\[5\]
*977 B1/N54
*978 B1/srl_55/U135
*979 B\[28\]
*980 B1/sub_48/U7
*981 B1/U277
*982 B1/U149
*983 operand2_reg/out_reg_28_
*984 B1/sub_53/carry\[6\]
*985 B1/N55
*986 B1/srl_55/U155
*987 B\[29\]
*988 operand2_reg/out_reg_29_
*989 B1/sub_48/U8
*990 B1/U276
*991 B1/U184
*992 B1/U143
*993 B1/sub_53/carry\[7\]
*994 B1/N56
*995 B\[30\]
*996 B1/sub_48/U9
*997 B1/U295
*998 B1/U175
*999 B1/U155
*1000 operand2_reg/out_reg_30_
*1001 B1/N57
*1002 B1/srl_55/U129
*1003 B1/srl_55/U82
*1004 B1/srl_55/U70
*1005 B1/srl_55/U63
*1006 B1/srl_55/U19
*1007 B1/srl_55/n122
*1008 B1/srl_55/n106
*1009 B1/srl_55/U133
*1010 B1/srl_55/U94
*1011 B1/srl_55/U7
*1012 B1/srl_55/n26
*1013 B1/srl_55/U153
*1014 B1/srl_55/U105
*1015 B1/srl_55/U11
*1016 B1/srl_55/n25
*1017 B1/srl_55/U126
*1018 B1/srl_55/n85
*1019 B1/srl_55/U5
*1020 B1/srl_55/U150
*1021 B1/srl_55/U144
*1022 B1/srl_55/U128
*1023 B1/srl_55/U117
*1024 B1/srl_55/U91
*1025 B1/srl_55/U73
*1026 B1/srl_55/U66
*1027 B1/srl_55/n82
*1028 B1/srl_55/U151
*1029 B1/srl_55/U127
*1030 B1/srl_55/U84
*1031 B1/srl_55/U72
*1032 B1/srl_55/U65
*1033 B1/srl_55/U2
*1034 B1/srl_55/n30
*1035 B1/srl_55/U120
*1036 B1/srl_55/U112
*1037 B1/srl_55/U40
*1038 B1/srl_55/n31
*1039 B1/srl_55/U107
*1040 B1/srl_55/U39
*1041 B1/srl_55/n58
*1042 B1/srl_55/U53
*1043 B1/srl_55/U6
*1044 B1/srl_55/U148
*1045 B1/srl_55/U99
*1046 B1/srl_55/U78
*1047 B1/srl_55/n129
*1048 B1/srl_55/n84
*1049 B1/srl_55/U9
*1050 A\[18\]
*1051 B1/srl_55/U103
*1052 B1/srl_55/U44
*1053 B1/U202
*1054 operand1_reg/out_reg_18_
*1055 A\[19\]
*1056 B1/srl_55/U116
*1057 B1/srl_55/U43
*1058 B1/U203
*1059 operand1_reg/out_reg_19_
*1060 B1/srl_55/n75
*1061 B1/srl_55/U108
*1062 B1/srl_55/U59
*1063 A\[21\]
*1064 B1/U208
*1065 operand1_reg/out_reg_21_
*1066 A\[22\]
*1067 B1/U204
*1068 operand1_reg/out_reg_22_
*1069 B1/srl_55/n128
*1070 B1/srl_55/n22
*1071 B1/srl_55/U104
*1072 B1/srl_55/U89
*1073 B1/srl_55/U85
*1074 B1/srl_55/U77
*1075 B1/srl_55/U69
*1076 B1/srl_55/U141
*1077 B1/srl_55/U138
*1078 B1/srl_55/U131
*1079 B1/srl_55/U122
*1080 B1/srl_55/U114
*1081 B1/srl_55/n27
*1082 B1/srl_55/U41
*1083 B1/srl_55/n127
*1084 B1/srl_55/U27
*1085 B1/srl_55/n15
*1086 B1/srl_55/U81
*1087 B1/srl_55/n51
*1088 B1/srl_55/U146
*1089 B1/srl_55/U51
*1090 B1/srl_55/n10
*1091 B1/srl_55/U142
*1092 B1/srl_55/U123
*1093 B1/srl_55/U96
*1094 B1/srl_55/U74
*1095 B1/srl_55/n108
*1096 B1/srl_55/U134
*1097 B1/srl_55/U98
*1098 B1/srl_55/n89
*1099 B1/srl_55/U136
*1100 B1/srl_55/U87
*1101 B1/srl_55/U75
*1102 B1/srl_55/U67
*1103 B1/srl_55/U13
*1104 A\[6\]
*1105 B1/srl_55/U90
*1106 B1/srl_55/U76
*1107 B1/U198
*1108 operand1_reg/out_reg_6_
*1109 A\[7\]
*1110 B1/srl_55/U68
*1111 B1/U197
*1112 operand1_reg/out_reg_7_
*1113 B1/srl_55/n126
*1114 B1/srl_55/U28
*1115 B1/srl_55/n16
*1116 B1/srl_55/U143
*1117 B1/srl_55/n23
*1118 B1/srl_55/U111
*1119 B1/srl_55/U106
*1120 B1/srl_55/U88
*1121 B1/srl_55/U140
*1122 B1/srl_55/U137
*1123 B1/srl_55/U132
*1124 B1/srl_55/U121
*1125 B1/srl_55/U119
*1126 B1/srl_55/U113
*1127 A\[5\]
*1128 B1/U196
*1129 operand1_reg/out_reg_5_
*1130 B1/srl_55/n24
*1131 A\[4\]
*1132 B1/srl_55/U49
*1133 B1/U195
*1134 operand1_reg/out_reg_4_
*1135 B1/srl_55/n73
*1136 B1/srl_55/U58
*1137 B1/srl_55/n14
*1138 B1/srl_55/U61
*1139 B1/srl_55/U60
*1140 B1/srl_55/n88
*1141 B1/srl_55/n37
*1142 B1/srl_55/U38
*1143 B1/srl_55/n18
*1144 B1/srl_55/n36
*1145 B1/srl_55/U37
*1146 B1/srl_55/n125
*1147 A\[9\]
*1148 B1/srl_55/U46
*1149 B1/U201
*1150 operand1_reg/out_reg_9_
*1151 A\[8\]
*1152 B1/srl_55/U32
*1153 B1/U200
*1154 operand1_reg/out_reg_8_
*1155 B1/srl_55/n50
*1156 B1/srl_55/n87
*1157 B1/srl_55/n33
*1158 B1/srl_55/U36
*1159 B1/srl_55/n32
*1160 B1/srl_55/U35
*1161 B1/srl_55/n124
*1162 A\[13\]
*1163 B1/srl_55/U45
*1164 B1/U193
*1165 operand1_reg/out_reg_13_
*1166 A\[12\]
*1167 B1/srl_55/U42
*1168 B1/U192
*1169 operand1_reg/out_reg_12_
*1170 B1/srl_55/n52
*1171 B1/srl_55/n123
*1172 B1/srl_55/U17
*1173 B1/srl_55/n78
*1174 B1/srl_55/U124
*1175 B1/srl_55/U86
*1176 B1/srl_55/U71
*1177 B1/srl_55/U64
*1178 B1/srl_55/n8
*1179 B1/srl_55/n118
*1180 B1/srl_55/n80
*1181 B1/srl_55/U130
*1182 B1/srl_55/U83
*1183 B1/srl_55/U12
*1184 A\[1\]
*1185 B1/srl_55/U34
*1186 B1/U189
*1187 operand1_reg/out_reg_1_
*1188 A\[0\]
*1189 B1/U209
*1190 operand1_reg/out_reg_0_
*1191 B1/srl_55/n121
*1192 B1/srl_55/n42
*1193 B1/srl_55/U47
*1194 B1/srl_55/n41
*1195 B1/srl_55/U48
*1196 B1/srl_55/n120
*1197 B1/srl_55/n119
*1198 B1/N58
*1199 A\[20\]
*1200 B1/U207
*1201 operand1_reg/out_reg_20_
*1202 B1/srl_55/n117
*1203 B1/srl_55/n28
*1204 B1/srl_55/n29
*1205 B1/srl_55/n66
*1206 B1/srl_55/U55
*1207 B1/srl_55/U24
*1208 B1/srl_55/n109
*1209 B1/srl_55/n19
*1210 B1/srl_55/U100
*1211 B1/srl_55/n95
*1212 B1/srl_55/U118
*1213 B1/srl_55/U93
*1214 B1/srl_55/U14
*1215 B1/srl_55/n7
*1216 B1/srl_55/U62
*1217 B1/srl_55/n107
*1218 B1/srl_55/U95
*1219 B1/srl_55/U3
*1220 B1/srl_55/n6
*1221 B1/srl_55/n47
*1222 B1/srl_55/U110
*1223 B1/srl_55/U50
*1224 B1/srl_55/n35
*1225 B1/srl_55/n34
*1226 B1/srl_55/n116
*1227 A\[11\]
*1228 B1/U191
*1229 operand1_reg/out_reg_11_
*1230 A\[10\]
*1231 B1/U190
*1232 operand1_reg/out_reg_10_
*1233 B1/srl_55/n61
*1234 B1/srl_55/U54
*1235 B1/srl_55/n115
*1236 A\[15\]
*1237 B1/U194
*1238 operand1_reg/out_reg_15_
*1239 A\[14\]
*1240 B1/U199
*1241 operand1_reg/out_reg_14_
*1242 B1/srl_55/n68
*1243 B1/srl_55/U29
*1244 B1/srl_55/n45
*1245 B1/srl_55/U56
*1246 B1/srl_55/U52
*1247 B1/srl_55/U102
*1248 B1/srl_55/U80
*1249 B1/srl_55/n49
*1250 B1/N68
*1251 B1/srl_55/n114
*1252 B1/srl_55/U33
*1253 B1/srl_55/n20
*1254 B1/srl_55/n59
*1255 B1/srl_55/n86
*1256 B1/srl_55/U92
*1257 B1/srl_55/U15
*1258 B1/srl_55/n113
*1259 B1/srl_55/n54
*1260 B1/srl_55/n112
*1261 A\[16\]
*1262 B1/U205
*1263 operand1_reg/out_reg_16_
*1264 B1/srl_55/n56
*1265 B1/N69
*1266 B1/srl_55/n67
*1267 B1/srl_55/U8
*1268 B1/srl_55/n4
*1269 B1/srl_55/U57
*1270 B1/N70
*1271 B1/srl_55/n111
*1272 B1/srl_55/n48
*1273 B1/srl_55/n71
*1274 B1/srl_55/n110
*1275 A\[17\]
*1276 B1/U206
*1277 operand1_reg/out_reg_17_
*1278 B1/srl_55/n72
*1279 B1/N71
*1280 B1/srl_55/n63
*1281 B1/srl_55/U16
*1282 B1/srl_55/n11
*1283 B1/srl_55/U79
*1284 B1/N72
*1285 B1/N73
*1286 B1/N74
*1287 B1/srl_55/n46
*1288 B1/srl_55/n102
*1289 B1/N75
*1290 B1/srl_55/n97
*1291 B1/N76
*1292 B1/N77
*1293 B1/srl_55/n105
*1294 B1/srl_55/U30
*1295 B1/srl_55/n21
*1296 B1/srl_55/n69
*1297 B1/srl_55/n104
*1298 B1/srl_55/n44
*1299 B1/srl_55/n103
*1300 B1/srl_55/U18
*1301 B1/srl_55/n9
*1302 B1/srl_55/n98
*1303 B1/srl_55/n40
*1304 B1/srl_55/n100
*1305 B1/srl_55/n43
*1306 B1/srl_55/n101
*1307 B1/srl_55/n99
*1308 B1/N59
*1309 B1/N78
*1310 B1/N79
*1311 B1/N80
*1312 B1/N81
*1313 B1/U419
*1314 B1/srl_55/n39
*1315 B1/srl_55/n38
*1316 B1/srl_55/n96
*1317 B1/srl_55/n60
*1318 B1/srl_55/n92
*1319 B1/srl_55/n76
*1320 B1/srl_55/n94
*1321 B1/srl_55/n93
*1322 B1/srl_55/n13
*1323 B1/srl_55/n91
*1324 B1/N60
*1325 B1/U188
*1326 B1/srl_55/n90
*1327 B1/srl_55/n53
*1328 B1/srl_55/n79
*1329 B1/srl_55/n83
*1330 B1/srl_55/n81
*1331 B1/srl_55/n12
*1332 B1/srl_55/n77
*1333 B1/N61
*1334 B1/U187
*1335 B1/srl_55/n64
*1336 B1/srl_55/n57
*1337 B1/srl_55/n65
*1338 B1/srl_55/U4
*1339 B1/srl_55/n5
*1340 B1/srl_55/n74
*1341 B1/srl_55/U25
*1342 B1/srl_55/n1
*1343 B1/N62
*1344 B1/srl_55/n70
*1345 B1/srl_55/U26
*1346 B1/srl_55/n2
*1347 B1/N63
*1348 B1/srl_55/n17
*1349 B1/srl_55/n62
*1350 B1/N64
*1351 B1/srl_55/n55
*1352 B1/srl_55/U31
*1353 B1/srl_55/n3
*1354 B1/N65
*1355 B1/N66
*1356 B1/N67
*1357 A\[3\]
*1358 operand1_reg/out_reg_3_
*1359 A\[2\]
*1360 operand1_reg/out_reg_2_
*1361 B1/r169/n25
*1362 B1/r169/U151
*1363 B1/r169/U75
*1364 B1/r169/U4
*1365 B1/B_mantissa_23_
*1366 B1/add_67/U1_23
*1367 B1/U418
*1368 B1/r169/n50
*1369 B1/r169/U74
*1370 B1/r169/U49
*1371 B1/r169/n48
*1372 B1/r169/U150
*1373 B1/r169/U68
*1374 B1/r169/U23
*1375 B1/sub_1_root_add_79_ni_B_0_
*1376 B1/add_67/U2
*1377 B1/add_67/U1
*1378 B1/r169/n149
*1379 B1/r169/U149
*1380 B1/r169/U148
*1381 B1/r169/n5
*1382 B1/r169/U67
*1383 B1/r169/U24
*1384 B1/r169/n148
*1385 B1/sub_1_root_add_102_ni_B_1_
*1386 B1/add_67/U1_1
*1387 B1/U212
*1388 B1/r169/n147
*1389 B1/r169/U14
*1390 B1/r169/n28
*1391 B1/r169/U147
*1392 B1/r169/U146
*1393 B1/r169/U29
*1394 B1/sub_1_root_add_79_ni_B_2_
*1395 B1/add_67/U1_2
*1396 B1/r169/n146
*1397 B1/r169/U145
*1398 B1/r169/U144
*1399 B1/r169/n106
*1400 B1/r169/U69
*1401 B1/r169/n104
*1402 B1/r169/U66
*1403 B1/r169/n4
*1404 B1/r169/n145
*1405 B1/r169/U141
*1406 B1/r169/n27
*1407 B1/r169/U143
*1408 B1/r169/U142
*1409 B1/r169/U31
*1410 B1/sub_1_root_add_79_ni_B_3_
*1411 B1/add_67/U1_3
*1412 B1/r169/n102
*1413 B1/r169/U65
*1414 B1/r169/U13
*1415 B1/r169/n107
*1416 B1/r169/n3
*1417 B1/r169/n143
*1418 B1/r169/U137
*1419 B1/r169/n34
*1420 B1/r169/U140
*1421 B1/r169/U139
*1422 B1/r169/U22
*1423 B1/sub_1_root_add_79_ni_B_4_
*1424 B1/add_67/U1_4
*1425 B1/r169/n144
*1426 B1/r169/U12
*1427 B1/r169/n98
*1428 B1/r169/U138
*1429 B1/r169/U64
*1430 B1/r169/n12
*1431 B1/r169/n101
*1432 B1/r169/U1
*1433 B1/r169/n11
*1434 B1/r169/n142
*1435 B1/r169/U134
*1436 B1/r169/n35
*1437 B1/r169/U136
*1438 B1/r169/U135
*1439 B1/r169/U25
*1440 B1/sub_1_root_add_79_ni_B_5_
*1441 B1/add_67/U1_5
*1442 B1/r169/n95
*1443 B1/r169/U63
*1444 B1/r169/n97
*1445 B1/r169/U5
*1446 B1/r169/n13
*1447 B1/r169/n140
*1448 B1/r169/U130
*1449 B1/r169/n37
*1450 B1/r169/U133
*1451 B1/r169/U132
*1452 B1/r169/U26
*1453 B1/sub_1_root_add_79_ni_B_6_
*1454 B1/add_67/U1_6
*1455 B1/r169/n141
*1456 B1/r169/U131
*1457 B1/r169/n91
*1458 B1/r169/U62
*1459 B1/r169/U15
*1460 B1/r169/n15
*1461 B1/r169/n96
*1462 B1/r169/n139
*1463 B1/r169/U127
*1464 B1/r169/n36
*1465 B1/r169/U129
*1466 B1/r169/U128
*1467 B1/r169/U30
*1468 B1/sub_1_root_add_79_ni_B_7_
*1469 B1/add_67/U1_7
*1470 B1/r169/n88
*1471 B1/r169/U61
*1472 B1/r169/n90
*1473 B1/r169/U16
*1474 B1/r169/n14
*1475 B1/r169/n137
*1476 B1/r169/U123
*1477 B1/r169/n39
*1478 B1/r169/U126
*1479 B1/r169/U125
*1480 B1/r169/U34
*1481 B1/sub_1_root_add_79_ni_B_8_
*1482 B1/add_67/U1_8
*1483 B1/r169/n138
*1484 B1/r169/U124
*1485 B1/r169/n108
*1486 B1/r169/U70
*1487 B1/r169/n89
*1488 B1/r169/n136
*1489 B1/r169/U120
*1490 B1/r169/n40
*1491 B1/r169/U122
*1492 B1/r169/U121
*1493 B1/r169/U36
*1494 B1/sub_1_root_add_79_ni_B_9_
*1495 B1/add_67/U1_9
*1496 B1/r169/n86
*1497 B1/r169/U60
*1498 B1/r169/U6
*1499 B1/r169/n109
*1500 B1/r169/n18