*SPEF "1481-1998"
*DESIGN "FPM_final"
*DATE "Fri Dec 29 03:58:31 2017"
*VENDOR "Synopsys, Inc."
*PROGRAM "icc_shell"
*VERSION "G-2012.06-ICC-SP2"
*DESIGN_FLOW "PIN_CAP NONE"
*DIVIDER /
*DELIMITER :
*BUS_DELIMITER [ ]
*T_UNIT 1 NS
*C_UNIT 1 FF
*R_UNIT 1 OHM
*L_UNIT 1 HENRY

*NAME_MAP
*1 in1[1]
*2 in1[0]
*3 VDD
*4 VSS
*5 in1[9]
*6 in1[8]
*7 in1[7]
*8 in1[6]
*9 in1[5]
*10 in1[4]
*11 in1[3]
*12 in1[2]
*13 in1[17]
*14 in1[16]
*15 in1[15]
*16 in1[14]
*17 in1[13]
*18 in1[12]
*19 in1[11]
*20 in1[10]
*21 in1[25]
*22 in1[24]
*23 in1[23]
*24 in1[22]
*25 in1[21]
*26 in1[20]
*27 in1[19]
*28 in1[18]
*29 in2[1]
*30 in2[0]
*31 in1[31]
*32 in1[30]
*33 in1[29]
*34 in1[28]
*35 in1[27]
*36 in1[26]
*37 in2[9]
*38 in2[8]
*39 in2[7]
*40 in2[6]
*41 in2[5]
*42 in2[4]
*43 in2[3]
*44 in2[2]
*45 in2[17]
*46 in2[16]
*47 in2[15]
*48 in2[14]
*49 in2[13]
*50 in2[12]
*51 in2[11]
*52 in2[10]
*53 in2[25]
*54 in2[24]
*55 in2[23]
*56 in2[22]
*57 in2[21]
*58 in2[20]
*59 in2[19]
*60 in2[18]
*61 OUT[1]
*62 OUT[0]
*63 in2[31]
*64 in2[30]
*65 in2[29]
*66 in2[28]
*67 in2[27]
*68 in2[26]
*69 OUT[9]
*70 OUT[8]
*71 OUT[7]
*72 OUT[6]
*73 OUT[5]
*74 OUT[4]
*75 OUT[3]
*76 OUT[2]
*77 OUT[17]
*78 OUT[16]
*79 OUT[15]
*80 OUT[14]
*81 OUT[13]
*82 OUT[12]
*83 OUT[11]
*84 OUT[10]
*85 OUT[25]
*86 OUT[24]
*87 OUT[23]
*88 OUT[22]
*89 OUT[21]
*90 OUT[20]
*91 OUT[19]
*92 OUT[18]
*93 rst
*94 clk
*95 OUT[31]
*96 OUT[30]
*97 OUT[29]
*98 OUT[28]
*99 OUT[27]
*100 OUT[26]
*101 product\[31\]
*102 output_reg/U38
*103 B1/U4
*104 output_reg/N34
*105 output_reg/U5
*106 product\[30\]
*107 output_reg/U37
*108 B1/N_instance/U624
*109 output_reg/N33
*110 output_reg/out_reg_30_
*111 product\[29\]
*112 output_reg/U36
*113 B1/N_instance/U623
*114 output_reg/N32
*115 output_reg/out_reg_29_
*116 product\[28\]
*117 output_reg/U35
*118 B1/N_instance/U622
*119 output_reg/N31
*120 output_reg/U32
*121 product\[27\]
*122 output_reg/U34
*123 B1/N_instance/U621
*124 output_reg/N30
*125 output_reg/U40
*126 product\[26\]
*127 output_reg/U33
*128 B1/N_instance/U620
*129 output_reg/N29
*130 output_reg/U42
*131 product\[25\]
*132 B1/N_instance/U619
*133 output_reg/U3
*134 product\[24\]
*135 output_reg/U31
*136 B1/N_instance/U618
*137 output_reg/N27
*138 output_reg/U45
*139 product\[23\]
*140 output_reg/U30
*141 B1/N_instance/U617
*142 output_reg/N26
*143 output_reg/out_reg_23_
*144 product\[22\]
*145 output_reg/U29
*146 B1/N_instance/U599
*147 output_reg/N25
*148 output_reg/out_reg_22_
*149 product\[21\]
*150 output_reg/U28
*151 B1/N_instance/U604
*152 output_reg/N24
*153 output_reg/U46
*154 product\[20\]
*155 output_reg/U27
*156 B1/N_instance/U610
*157 output_reg/N23
*158 output_reg/out_reg_20_
*159 product\[19\]
*160 output_reg/U26
*161 B1/N_instance/U609
*162 output_reg/N22
*163 output_reg/out_reg_19_
*164 product\[18\]
*165 output_reg/U25
*166 B1/N_instance/U607
*167 output_reg/N21
*168 output_reg/out_reg_18_
*169 product\[17\]
*170 output_reg/U24
*171 B1/N_instance/U606
*172 output_reg/N20
*173 output_reg/out_reg_17_
*174 product\[16\]
*175 output_reg/U23
*176 B1/N_instance/U608
*177 output_reg/N19
*178 output_reg/out_reg_16_
*179 product\[15\]
*180 output_reg/U22
*181 B1/N_instance/U605
*182 output_reg/N18
*183 output_reg/out_reg_15_
*184 product\[14\]
*185 output_reg/U21
*186 B1/N_instance/U603
*187 output_reg/N17
*188 output_reg/out_reg_14_
*189 product\[13\]
*190 output_reg/U20
*191 B1/N_instance/U602
*192 output_reg/N16
*193 output_reg/out_reg_13_
*194 product\[12\]
*195 output_reg/U19
*196 B1/N_instance/U601
*197 output_reg/N15
*198 output_reg/out_reg_12_
*199 product\[11\]
*200 output_reg/U18
*201 B1/N_instance/U600
*202 output_reg/N14
*203 output_reg/out_reg_11_
*204 product\[10\]
*205 output_reg/U17
*206 B1/N_instance/U612
*207 output_reg/N13
*208 output_reg/out_reg_10_
*209 product\[9\]
*210 output_reg/U16
*211 B1/N_instance/U615
*212 output_reg/N12
*213 output_reg/out_reg_9_
*214 product\[8\]
*215 output_reg/U15
*216 B1/N_instance/U614
*217 output_reg/N11
*218 output_reg/out_reg_8_
*219 product\[7\]
*220 output_reg/U14
*221 B1/N_instance/U616
*222 output_reg/N10
*223 output_reg/out_reg_7_
*224 product\[6\]
*225 output_reg/U13
*226 B1/N_instance/U611
*227 output_reg/N9
*228 output_reg/out_reg_6_
*229 product\[5\]
*230 output_reg/U12
*231 B1/N_instance/U598
*232 output_reg/N8
*233 output_reg/out_reg_5_
*234 product\[0\]
*235 output_reg/U11
*236 B1/N_instance/U613
*237 output_reg/N3
*238 output_reg/U4
*239 product\[1\]
*240 output_reg/U10
*241 B1/N_instance/U597
*242 output_reg/N4
*243 output_reg/U49
*244 product\[4\]
*245 output_reg/U9
*246 B1/N_instance/U595
*247 output_reg/N7
*248 output_reg/U47
*249 product\[3\]
*250 output_reg/U8
*251 B1/N_instance/U596
*252 output_reg/N6
*253 output_reg/U2
*254 product\[2\]
*255 output_reg/U7
*256 B1/N_instance/U594
*257 output_reg/N5
*258 output_reg/U48
*259 U1
*260 U2
*261 INV_X32_BC
*262 output_reg/out_reg_0_
*263 output_reg/out_reg_1_
*264 output_reg/out_reg_2_
*265 output_reg/out_reg_3_
*266 output_reg/out_reg_4_
*267 output_reg/out_reg_21_
*268 output_reg/out_reg_24_
*269 output_reg/out_reg_25_
*270 output_reg/out_reg_26_
*271 output_reg/out_reg_27_
*272 output_reg/out_reg_28_
*273 output_reg/out_reg_31_
*274 B1/mult_50/n67
*275 B1/mult_50/FS_1/U132
*276 B1/mult_50/FS_1/U2
*277 B1/mult_50/U68
*278 B1/mult_50/n56
*279 B1/mult_50/U57
*280 B1/mult_50/FS_1/n109
*281 B1/mult_50/FS_1/U25
*282 B1/mult_50/FS_1/U23
*283 B1/mult_50/n78
*284 B1/mult_50/FS_1/U131
*285 B1/mult_50/FS_1/U130
*286 B1/mult_50/U79
*287 B1/mult_50/n68
*288 B1/mult_50/U69
*289 B1/mult_50/FS_1/n106
*290 B1/mult_50/FS_1/U129
*291 B1/mult_50/FS_1/U124
*292 B1/mult_50/FS_1/n107
*293 B1/mult_50/FS_1/U3
*294 B1/mult_50/FS_1/n108
*295 B1/mult_50/FS_1/U128
*296 B1/mult_50/FS_1/n24
*297 B1/temp_product\[26\]
*298 B1/U50
*299 B1/U15
*300 B1/mult_50/n59
*301 B1/mult_50/FS_1/U127
*302 B1/mult_50/FS_1/U126
*303 B1/mult_50/U60
*304 B1/mult_50/n48
*305 B1/mult_50/U49
*306 B1/mult_50/FS_1/n102
*307 B1/mult_50/FS_1/U122
*308 B1/mult_50/FS_1/U15
*309 B1/mult_50/FS_1/n104
*310 B1/mult_50/FS_1/U125
*311 B1/mult_50/FS_1/n22
*312 B1/mult_50/FS_1/n105
*313 B1/mult_50/FS_1/U123
*314 B1/mult_50/FS_1/n23
*315 B1/mult_50/FS_1/n103
*316 B1/temp_product\[27\]
*317 B1/U38
*318 B1/mult_50/FS_1/n98
*319 B1/mult_50/FS_1/U118
*320 B1/mult_50/FS_1/U114
*321 B1/mult_50/n79
*322 B1/mult_50/FS_1/U121
*323 B1/mult_50/FS_1/U120
*324 B1/mult_50/U80
*325 B1/mult_50/n69
*326 B1/mult_50/U70
*327 B1/mult_50/FS_1/n99
*328 B1/mult_50/FS_1/U119
*329 B1/mult_50/FS_1/n100
*330 B1/mult_50/FS_1/U4
*331 B1/mult_50/FS_1/n101
*332 B1/temp_product\[28\]
*333 B1/U29
*334 B1/mult_50/n60
*335 B1/mult_50/FS_1/U117
*336 B1/mult_50/FS_1/U116
*337 B1/mult_50/U61
*338 B1/mult_50/n49
*339 B1/mult_50/U50
*340 B1/mult_50/FS_1/n94
*341 B1/mult_50/FS_1/U112
*342 B1/mult_50/FS_1/U16
*343 B1/mult_50/FS_1/n96
*344 B1/mult_50/FS_1/U115
*345 B1/mult_50/FS_1/n20
*346 B1/mult_50/FS_1/n97
*347 B1/mult_50/FS_1/U113
*348 B1/mult_50/FS_1/n21
*349 B1/mult_50/FS_1/n95
*350 B1/temp_product\[29\]
*351 B1/U39
*352 B1/mult_50/FS_1/n90
*353 B1/mult_50/FS_1/U108
*354 B1/mult_50/FS_1/U104
*355 B1/mult_50/n80
*356 B1/mult_50/FS_1/U111
*357 B1/mult_50/FS_1/U110
*358 B1/mult_50/U81
*359 B1/mult_50/n70
*360 B1/mult_50/U71
*361 B1/mult_50/FS_1/n91
*362 B1/mult_50/FS_1/U109
*363 B1/mult_50/FS_1/n92
*364 B1/mult_50/FS_1/U5
*365 B1/mult_50/FS_1/n93
*366 B1/temp_product\[30\]
*367 B1/U30
*368 B1/mult_50/n61
*369 B1/mult_50/FS_1/U107
*370 B1/mult_50/FS_1/U106
*371 B1/mult_50/U62
*372 B1/mult_50/n50
*373 B1/mult_50/U51
*374 B1/mult_50/FS_1/n86
*375 B1/mult_50/FS_1/U102
*376 B1/mult_50/FS_1/U17
*377 B1/mult_50/FS_1/n88
*378 B1/mult_50/FS_1/U105
*379 B1/mult_50/FS_1/n18
*380 B1/mult_50/FS_1/n89
*381 B1/mult_50/FS_1/U103
*382 B1/mult_50/FS_1/n19
*383 B1/mult_50/FS_1/n87
*384 B1/temp_product\[31\]
*385 B1/U40
*386 B1/mult_50/FS_1/n82
*387 B1/mult_50/FS_1/U98
*388 B1/mult_50/FS_1/U94
*389 B1/mult_50/n81
*390 B1/mult_50/FS_1/U101
*391 B1/mult_50/FS_1/U100
*392 B1/mult_50/U82
*393 B1/mult_50/n71
*394 B1/mult_50/U72
*395 B1/mult_50/FS_1/n83
*396 B1/mult_50/FS_1/U99
*397 B1/mult_50/FS_1/n84
*398 B1/mult_50/FS_1/U6
*399 B1/mult_50/FS_1/n85
*400 B1/temp_product\[32\]
*401 B1/U46
*402 B1/mult_50/n62
*403 B1/mult_50/FS_1/U97
*404 B1/mult_50/FS_1/U96
*405 B1/mult_50/U63
*406 B1/mult_50/n51
*407 B1/mult_50/U52
*408 B1/mult_50/FS_1/n78
*409 B1/mult_50/FS_1/U92
*410 B1/mult_50/FS_1/U18
*411 B1/mult_50/FS_1/n80
*412 B1/mult_50/FS_1/U95
*413 B1/mult_50/FS_1/n16
*414 B1/mult_50/FS_1/n81
*415 B1/mult_50/FS_1/U93
*416 B1/mult_50/FS_1/n17
*417 B1/mult_50/FS_1/n79
*418 B1/temp_product\[33\]
*419 B1/U41
*420 B1/mult_50/FS_1/n74
*421 B1/mult_50/FS_1/U88
*422 B1/mult_50/FS_1/U84
*423 B1/mult_50/n82
*424 B1/mult_50/FS_1/U91
*425 B1/mult_50/FS_1/U90
*426 B1/mult_50/U83
*427 B1/mult_50/n72
*428 B1/mult_50/U73
*429 B1/mult_50/FS_1/n75
*430 B1/mult_50/FS_1/U89
*431 B1/mult_50/FS_1/n76
*432 B1/mult_50/FS_1/U7
*433 B1/mult_50/FS_1/n77
*434 B1/temp_product\[34\]
*435 B1/U32
*436 B1/mult_50/n63
*437 B1/mult_50/FS_1/U87
*438 B1/mult_50/FS_1/U86
*439 B1/mult_50/U64
*440 B1/mult_50/n52
*441 B1/mult_50/U53
*442 B1/mult_50/FS_1/n70
*443 B1/mult_50/FS_1/U82
*444 B1/mult_50/FS_1/U19
*445 B1/mult_50/FS_1/n72
*446 B1/mult_50/FS_1/U85
*447 B1/mult_50/FS_1/n14
*448 B1/mult_50/FS_1/n73
*449 B1/mult_50/FS_1/U83
*450 B1/mult_50/FS_1/n15
*451 B1/mult_50/FS_1/n71
*452 B1/temp_product\[35\]
*453 B1/U42
*454 B1/mult_50/FS_1/n66
*455 B1/mult_50/FS_1/U78
*456 B1/mult_50/FS_1/U74
*457 B1/mult_50/n83
*458 B1/mult_50/FS_1/U81
*459 B1/mult_50/FS_1/U80
*460 B1/mult_50/U84
*461 B1/mult_50/n73
*462 B1/mult_50/U74
*463 B1/mult_50/FS_1/n67
*464 B1/mult_50/FS_1/U79
*465 B1/mult_50/FS_1/n68
*466 B1/mult_50/FS_1/U8
*467 B1/mult_50/FS_1/n69
*468 B1/temp_product\[36\]
*469 B1/U31
*470 B1/mult_50/n64
*471 B1/mult_50/FS_1/U77
*472 B1/mult_50/FS_1/U76
*473 B1/mult_50/U65
*474 B1/mult_50/n53
*475 B1/mult_50/U54
*476 B1/mult_50/FS_1/n62
*477 B1/mult_50/FS_1/U72
*478 B1/mult_50/FS_1/U20
*479 B1/mult_50/FS_1/n64
*480 B1/mult_50/FS_1/U75
*481 B1/mult_50/FS_1/n12
*482 B1/mult_50/FS_1/n65
*483 B1/mult_50/FS_1/U73
*484 B1/mult_50/FS_1/n13
*485 B1/mult_50/FS_1/n63
*486 B1/temp_product\[37\]
*487 B1/U43
*488 B1/mult_50/FS_1/n58
*489 B1/mult_50/FS_1/U68
*490 B1/mult_50/FS_1/U64
*491 B1/mult_50/n84
*492 B1/mult_50/FS_1/U71
*493 B1/mult_50/FS_1/U70
*494 B1/mult_50/U85
*495 B1/mult_50/n74
*496 B1/mult_50/U75
*497 B1/mult_50/FS_1/n59
*498 B1/mult_50/FS_1/U69
*499 B1/mult_50/FS_1/n60
*500 B1/mult_50/FS_1/U9
*501 B1/mult_50/FS_1/n61
*502 B1/temp_product\[38\]
*503 B1/U33
*504 B1/mult_50/n65
*505 B1/mult_50/FS_1/U67
*506 B1/mult_50/FS_1/U66
*507 B1/mult_50/U66
*508 B1/mult_50/n54
*509 B1/mult_50/U55
*510 B1/mult_50/FS_1/n54
*511 B1/mult_50/FS_1/U62
*512 B1/mult_50/FS_1/U21
*513 B1/mult_50/FS_1/n56
*514 B1/mult_50/FS_1/U65
*515 B1/mult_50/FS_1/n10
*516 B1/mult_50/FS_1/n57
*517 B1/mult_50/FS_1/U63
*518 B1/mult_50/FS_1/n11
*519 B1/mult_50/FS_1/n55
*520 B1/temp_product\[39\]
*521 B1/U44
*522 B1/mult_50/FS_1/n50
*523 B1/mult_50/FS_1/U58
*524 B1/mult_50/FS_1/U54
*525 B1/mult_50/n85
*526 B1/mult_50/FS_1/U61
*527 B1/mult_50/FS_1/U60
*528 B1/mult_50/U86
*529 B1/mult_50/n75
*530 B1/mult_50/U76
*531 B1/mult_50/FS_1/n51
*532 B1/mult_50/FS_1/U59
*533 B1/mult_50/FS_1/n52
*534 B1/mult_50/FS_1/U10
*535 B1/mult_50/FS_1/n53
*536 B1/temp_product\[40\]
*537 B1/U34
*538 B1/mult_50/n66
*539 B1/mult_50/FS_1/U57
*540 B1/mult_50/FS_1/U56
*541 B1/mult_50/U67
*542 B1/mult_50/n55
*543 B1/mult_50/U56
*544 B1/mult_50/FS_1/n46
*545 B1/mult_50/FS_1/U52
*546 B1/mult_50/FS_1/U22
*547 B1/mult_50/FS_1/n48
*548 B1/mult_50/FS_1/U55
*549 B1/mult_50/FS_1/n8
*550 B1/mult_50/FS_1/n49
*551 B1/mult_50/FS_1/U53
*552 B1/mult_50/FS_1/n9
*553 B1/mult_50/FS_1/n47
*554 B1/temp_product\[41\]
*555 B1/U45
*556 B1/mult_50/FS_1/n42
*557 B1/mult_50/FS_1/U48
*558 B1/mult_50/FS_1/U44
*559 B1/mult_50/n86
*560 B1/mult_50/FS_1/U51
*561 B1/mult_50/FS_1/U50
*562 B1/mult_50/U87
*563 B1/mult_50/n76
*564 B1/mult_50/U77
*565 B1/mult_50/FS_1/n43
*566 B1/mult_50/FS_1/U49
*567 B1/mult_50/FS_1/n44
*568 B1/mult_50/FS_1/U11
*569 B1/mult_50/FS_1/n45
*570 B1/temp_product\[42\]
*571 B1/U35
*572 B1/mult_50/n58
*573 B1/mult_50/FS_1/U47
*574 B1/mult_50/FS_1/U46
*575 B1/mult_50/U59
*576 B1/mult_50/n47
*577 B1/mult_50/U48
*578 B1/mult_50/FS_1/n38
*579 B1/mult_50/FS_1/U42
*580 B1/mult_50/FS_1/U14
*581 B1/mult_50/FS_1/n40
*582 B1/mult_50/FS_1/U45
*583 B1/mult_50/FS_1/n6
*584 B1/mult_50/FS_1/n41
*585 B1/mult_50/FS_1/U43
*586 B1/mult_50/FS_1/n7
*587 B1/mult_50/FS_1/n39
*588 B1/temp_product\[43\]
*589 B1/U37
*590 B1/mult_50/FS_1/n34
*591 B1/mult_50/FS_1/U38
*592 B1/mult_50/FS_1/U34
*593 B1/mult_50/n87
*594 B1/mult_50/FS_1/U41
*595 B1/mult_50/FS_1/U40
*596 B1/mult_50/U88
*597 B1/mult_50/n77
*598 B1/mult_50/U78
*599 B1/mult_50/FS_1/n35
*600 B1/mult_50/FS_1/U39
*601 B1/mult_50/FS_1/n36
*602 B1/mult_50/FS_1/U12
*603 B1/mult_50/FS_1/n37
*604 B1/temp_product\[44\]
*605 B1/U28
*606 B1/mult_50/n57
*607 B1/mult_50/FS_1/U37
*608 B1/mult_50/FS_1/U36
*609 B1/mult_50/U58
*610 B1/mult_50/n46
*611 B1/mult_50/U47
*612 B1/mult_50/FS_1/n30
*613 B1/mult_50/FS_1/U32
*614 B1/mult_50/FS_1/U13
*615 B1/mult_50/FS_1/n32
*616 B1/mult_50/FS_1/U35
*617 B1/mult_50/FS_1/n4
*618 B1/mult_50/FS_1/n33
*619 B1/mult_50/FS_1/U33
*620 B1/mult_50/FS_1/n5
*621 B1/mult_50/FS_1/n31
*622 B1/temp_product\[45\]
*623 B1/U36
*624 B1/mult_50/FS_1/n26
*625 B1/mult_50/FS_1/U28
*626 B1/mult_50/FS_1/U27
*627 B1/mult_50/n88
*628 B1/mult_50/FS_1/U31
*629 B1/mult_50/FS_1/U30
*630 B1/mult_50/U89
*631 B1/mult_50/n90
*632 B1/mult_50/FS_1/U26
*633 B1/mult_50/U46
*634 B1/mult_50/FS_1/n27
*635 B1/mult_50/FS_1/U29
*636 B1/mult_50/FS_1/n28
*637 B1/mult_50/FS_1/U24
*638 B1/mult_50/FS_1/n29
*639 B1/temp_product\[46\]
*640 B1/U27
*641 B1/mult_50/FS_1/n3
*642 B1/mult_50/FS_1/n25
*643 B1/temp_product\[47\]
*644 B1/U57
*645 B1/U56
*646 B1/mult_50/FS_1/n1
*647 B1/temp_product\[25\]
*648 B1/U48
*649 B1/mult_50/n135
*650 B1/mult_50/U252
*651 B1/mult_50/U229
*652 B1/mult_50/U206
*653 B1/mult_50/U183
*654 B1/mult_50/U160
*655 B1/mult_50/U457
*656 B1/mult_50/U434
*657 B1/mult_50/U390
*658 B1/mult_50/U367
*659 B1/mult_50/U344
*660 B1/mult_50/U321
*661 B1/mult_50/U298
*662 B1/mult_50/U275
*663 B1/mult_50/U641
*664 B1/mult_50/U618
*665 B1/mult_50/U595
*666 B1/mult_50/U572
*667 B1/mult_50/U549
*668 B1/mult_50/U526
*669 B1/mult_50/U503
*670 B1/mult_50/U480
*671 B1/mult_50/U134
*672 B1/mult_50/n112
*673 B1/mult_50/U646
*674 B1/mult_50/U645
*675 B1/mult_50/U644
*676 B1/mult_50/U643
*677 B1/mult_50/U642
*678 B1/mult_50/U654
*679 B1/mult_50/U653
*680 B1/mult_50/U652
*681 B1/mult_50/U651
*682 B1/mult_50/U650
*683 B1/mult_50/U649
*684 B1/mult_50/U648
*685 B1/mult_50/U647
*686 B1/mult_50/U662
*687 B1/mult_50/U661
*688 B1/mult_50/U660
*689 B1/mult_50/U659
*690 B1/mult_50/U658
*691 B1/mult_50/U657
*692 B1/mult_50/U656
*693 B1/mult_50/U655
*694 B1/mult_50/U111
*695 B1/mult_50/ab_1__1_
*696 B1/mult_50/U664
*697 B1/mult_50/U663
*698 B1/mult_50/U43
*699 B1/mult_50/U22
*700 B\[0\]
*701 B1/mult_50/S4_0
*702 B1/U79
*703 operand2_reg/out_reg_0_
*704 A\[0\]
*705 B1/mult_50/U136
*706 B1/mult_50/U44
*707 B1/U81
*708 operand1_reg/out_reg_0_
*709 B1/mult_50/CARRYB_1__0_
*710 B1/mult_50/S1_2_0
*711 B1/mult_50/n103
*712 B1/mult_50/U102
*713 B1/mult_50/U144
*714 B1/mult_50/U143
*715 B1/mult_50/U142
*716 B1/mult_50/U141
*717 B1/mult_50/U140
*718 B1/mult_50/U139
*719 B1/mult_50/U138
*720 B1/mult_50/U152
*721 B1/mult_50/U151
*722 B1/mult_50/U150
*723 B1/mult_50/U149
*724 B1/mult_50/U148
*725 B1/mult_50/U147
*726 B1/mult_50/U146
*727 B1/mult_50/U145
*728 B1/mult_50/U159
*729 B1/mult_50/U158
*730 B1/mult_50/U157
*731 B1/mult_50/U156
*732 B1/mult_50/U155
*733 B1/mult_50/U154
*734 B1/mult_50/U153
*735 B1/mult_50/ab_0__10_
*736 B1/mult_50/U35
*737 B1/mult_50/U14
*738 B1/mult_50/n102
*739 B1/mult_50/U625
*740 B1/mult_50/U624
*741 B1/mult_50/U623
*742 B1/mult_50/U622
*743 B1/mult_50/U621
*744 B1/mult_50/U620
*745 B1/mult_50/U619
*746 B1/mult_50/U633
*747 B1/mult_50/U632
*748 B1/mult_50/U631
*749 B1/mult_50/U630
*750 B1/mult_50/U629
*751 B1/mult_50/U628
*752 B1/mult_50/U627
*753 B1/mult_50/U626
*754 B1/mult_50/U640
*755 B1/mult_50/U639
*756 B1/mult_50/U638
*757 B1/mult_50/U637
*758 B1/mult_50/U636
*759 B1/mult_50/U635
*760 B1/mult_50/U634
*761 B1/mult_50/U101
*762 B1/mult_50/ab_0__11_
*763 B1/mult_50/U34
*764 B1/mult_50/U13
*765 B1/mult_50/n101
*766 B1/mult_50/U602
*767 B1/mult_50/U601
*768 B1/mult_50/U600
*769 B1/mult_50/U599
*770 B1/mult_50/U598
*771 B1/mult_50/U597
*772 B1/mult_50/U596
*773 B1/mult_50/U610
*774 B1/mult_50/U609
*775 B1/mult_50/U608
*776 B1/mult_50/U607
*777 B1/mult_50/U606
*778 B1/mult_50/U605
*779 B1/mult_50/U604
*780 B1/mult_50/U603
*781 B1/mult_50/U617
*782 B1/mult_50/U616
*783 B1/mult_50/U615
*784 B1/mult_50/U614
*785 B1/mult_50/U613
*786 B1/mult_50/U612
*787 B1/mult_50/U611
*788 B1/mult_50/U100
*789 B1/mult_50/ab_0__12_
*790 B1/mult_50/U33
*791 B1/mult_50/U12
*792 B1/mult_50/n100
*793 B1/mult_50/U579
*794 B1/mult_50/U578
*795 B1/mult_50/U577
*796 B1/mult_50/U576
*797 B1/mult_50/U575
*798 B1/mult_50/U574
*799 B1/mult_50/U573
*800 B1/mult_50/U587
*801 B1/mult_50/U586
*802 B1/mult_50/U585
*803 B1/mult_50/U584
*804 B1/mult_50/U583
*805 B1/mult_50/U582
*806 B1/mult_50/U581
*807 B1/mult_50/U580
*808 B1/mult_50/U594
*809 B1/mult_50/U593
*810 B1/mult_50/U592
*811 B1/mult_50/U591
*812 B1/mult_50/U590
*813 B1/mult_50/U589
*814 B1/mult_50/U588
*815 B1/mult_50/U99
*816 B1/mult_50/ab_0__13_
*817 B1/mult_50/U32
*818 B1/mult_50/U11
*819 B1/mult_50/n99
*820 B1/mult_50/U556
*821 B1/mult_50/U555
*822 B1/mult_50/U554
*823 B1/mult_50/U553
*824 B1/mult_50/U552
*825 B1/mult_50/U551
*826 B1/mult_50/U550
*827 B1/mult_50/U564
*828 B1/mult_50/U563
*829 B1/mult_50/U562
*830 B1/mult_50/U561
*831 B1/mult_50/U560
*832 B1/mult_50/U559
*833 B1/mult_50/U558
*834 B1/mult_50/U557
*835 B1/mult_50/U571
*836 B1/mult_50/U570
*837 B1/mult_50/U569
*838 B1/mult_50/U568
*839 B1/mult_50/U567
*840 B1/mult_50/U566
*841 B1/mult_50/U565
*842 B1/mult_50/U98
*843 B1/mult_50/ab_0__14_
*844 B1/mult_50/U31
*845 B1/mult_50/U10
*846 B1/mult_50/n98
*847 B1/mult_50/U533
*848 B1/mult_50/U532
*849 B1/mult_50/U531
*850 B1/mult_50/U530
*851 B1/mult_50/U529
*852 B1/mult_50/U528
*853 B1/mult_50/U527
*854 B1/mult_50/U541
*855 B1/mult_50/U540
*856 B1/mult_50/U539
*857 B1/mult_50/U538
*858 B1/mult_50/U537
*859 B1/mult_50/U536
*860 B1/mult_50/U535
*861 B1/mult_50/U534
*862 B1/mult_50/U548
*863 B1/mult_50/U547
*864 B1/mult_50/U546
*865 B1/mult_50/U545
*866 B1/mult_50/U544
*867 B1/mult_50/U543
*868 B1/mult_50/U542
*869 B1/mult_50/U97
*870 B1/mult_50/ab_0__15_
*871 B1/mult_50/U30
*872 B1/mult_50/U9
*873 B1/mult_50/n97
*874 B1/mult_50/U510
*875 B1/mult_50/U509
*876 B1/mult_50/U508
*877 B1/mult_50/U507
*878 B1/mult_50/U506
*879 B1/mult_50/U505
*880 B1/mult_50/U504
*881 B1/mult_50/U518
*882 B1/mult_50/U517
*883 B1/mult_50/U516
*884 B1/mult_50/U515
*885 B1/mult_50/U514
*886 B1/mult_50/U513
*887 B1/mult_50/U512
*888 B1/mult_50/U511
*889 B1/mult_50/U525
*890 B1/mult_50/U524
*891 B1/mult_50/U523
*892 B1/mult_50/U522
*893 B1/mult_50/U521
*894 B1/mult_50/U520
*895 B1/mult_50/U519
*896 B1/mult_50/U96
*897 B1/mult_50/ab_0__16_
*898 B1/mult_50/U29
*899 B1/mult_50/U8
*900 B1/mult_50/n96
*901 B1/mult_50/U487
*902 B1/mult_50/U486
*903 B1/mult_50/U485
*904 B1/mult_50/U484
*905 B1/mult_50/U483
*906 B1/mult_50/U482
*907 B1/mult_50/U481
*908 B1/mult_50/U495
*909 B1/mult_50/U494
*910 B1/mult_50/U493
*911 B1/mult_50/U492
*912 B1/mult_50/U491
*913 B1/mult_50/U490
*914 B1/mult_50/U489
*915 B1/mult_50/U488
*916 B1/mult_50/U502
*917 B1/mult_50/U501
*918 B1/mult_50/U500
*919 B1/mult_50/U499
*920 B1/mult_50/U498
*921 B1/mult_50/U497
*922 B1/mult_50/U496
*923 B1/mult_50/U95
*924 B1/mult_50/ab_0__17_
*925 B1/mult_50/U28
*926 B1/mult_50/U7
*927 B1/mult_50/n95
*928 B1/mult_50/U464
*929 B1/mult_50/U463
*930 B1/mult_50/U462
*931 B1/mult_50/U461
*932 B1/mult_50/U460
*933 B1/mult_50/U459
*934 B1/mult_50/U458
*935 B1/mult_50/U472
*936 B1/mult_50/U471
*937 B1/mult_50/U470
*938 B1/mult_50/U469
*939 B1/mult_50/U468
*940 B1/mult_50/U467
*941 B1/mult_50/U466
*942 B1/mult_50/U465
*943 B1/mult_50/U479
*944 B1/mult_50/U478
*945 B1/mult_50/U477
*946 B1/mult_50/U476
*947 B1/mult_50/U475
*948 B1/mult_50/U474
*949 B1/mult_50/U473
*950 B1/mult_50/U94
*951 B1/mult_50/ab_0__18_
*952 B1/mult_50/U27
*953 B1/mult_50/U6
*954 B1/mult_50/n94
*955 B1/mult_50/U441
*956 B1/mult_50/U440
*957 B1/mult_50/U439
*958 B1/mult_50/U438
*959 B1/mult_50/U437
*960 B1/mult_50/U436
*961 B1/mult_50/U435
*962 B1/mult_50/U449
*963 B1/mult_50/U448
*964 B1/mult_50/U447
*965 B1/mult_50/U446
*966 B1/mult_50/U445
*967 B1/mult_50/U444
*968 B1/mult_50/U443
*969 B1/mult_50/U442
*970 B1/mult_50/U456
*971 B1/mult_50/U455
*972 B1/mult_50/U454
*973 B1/mult_50/U453
*974 B1/mult_50/U452
*975 B1/mult_50/U451
*976 B1/mult_50/U450
*977 B1/mult_50/U93
*978 B1/mult_50/ab_0__19_
*979 B1/mult_50/U26
*980 B1/mult_50/U5
*981 B1/mult_50/n93
*982 B1/mult_50/U418
*983 B1/mult_50/U417
*984 B1/mult_50/U416
*985 B1/mult_50/U415
*986 B1/mult_50/U414
*987 B1/mult_50/U413
*988 B1/mult_50/U412
*989 B1/mult_50/U426
*990 B1/mult_50/U425
*991 B1/mult_50/U424
*992 B1/mult_50/U423
*993 B1/mult_50/U422
*994 B1/mult_50/U421
*995 B1/mult_50/U420
*996 B1/mult_50/U419
*997 B1/mult_50/U433
*998 B1/mult_50/U432
*999 B1/mult_50/U431
*1000 B1/mult_50/U430
*1001 B1/mult_50/U429
*1002 B1/mult_50/U428
*1003 B1/mult_50/U427
*1004 B1/mult_50/U92
*1005 B1/mult_50/ab_0__20_
*1006 B1/mult_50/U25
*1007 B1/mult_50/U4
*1008 B1/mult_50/n92
*1009 B1/mult_50/U374
*1010 B1/mult_50/U373
*1011 B1/mult_50/U372
*1012 B1/mult_50/U371
*1013 B1/mult_50/U370
*1014 B1/mult_50/U369
*1015 B1/mult_50/U368
*1016 B1/mult_50/U382
*1017 B1/mult_50/U381
*1018 B1/mult_50/U380
*1019 B1/mult_50/U379
*1020 B1/mult_50/U378
*1021 B1/mult_50/U377
*1022 B1/mult_50/U376
*1023 B1/mult_50/U375
*1024 B1/mult_50/U389
*1025 B1/mult_50/U388
*1026 B1/mult_50/U387
*1027 B1/mult_50/U386
*1028 B1/mult_50/U385
*1029 B1/mult_50/U384
*1030 B1/mult_50/U383
*1031 B1/mult_50/U91
*1032 B1/mult_50/ab_0__21_
*1033 B1/mult_50/U24
*1034 B1/mult_50/U3
*1035 B1/mult_50/n91
*1036 B1/mult_50/U351
*1037 B1/mult_50/U350
*1038 B1/mult_50/U349
*1039 B1/mult_50/U348
*1040 B1/mult_50/U347
*1041 B1/mult_50/U346
*1042 B1/mult_50/U345
*1043 B1/mult_50/U359
*1044 B1/mult_50/U358
*1045 B1/mult_50/U357
*1046 B1/mult_50/U356
*1047 B1/mult_50/U355
*1048 B1/mult_50/U354
*1049 B1/mult_50/U353
*1050 B1/mult_50/U352
*1051 B1/mult_50/U366
*1052 B1/mult_50/U365
*1053 B1/mult_50/U364
*1054 B1/mult_50/U363
*1055 B1/mult_50/U362
*1056 B1/mult_50/U361
*1057 B1/mult_50/U360
*1058 B1/mult_50/U90
*1059 B1/mult_50/ab_0__22_
*1060 B1/mult_50/U23
*1061 B1/mult_50/U2
*1062 B1/mult_50/n111
*1063 B1/mult_50/U396
*1064 B1/mult_50/U395
*1065 B1/mult_50/U394
*1066 B1/mult_50/U393
*1067 B1/mult_50/U392
*1068 B1/mult_50/U391
*1069 B1/mult_50/U404
*1070 B1/mult_50/U403
*1071 B1/mult_50/U402
*1072 B1/mult_50/U401
*1073 B1/mult_50/U400
*1074 B1/mult_50/U399
*1075 B1/mult_50/U398
*1076 B1/mult_50/U397
*1077 B1/mult_50/U411
*1078 B1/mult_50/U410
*1079 B1/mult_50/U409
*1080 B1/mult_50/U408
*1081 B1/mult_50/U407
*1082 B1/mult_50/U406
*1083 B1/mult_50/U405
*1084 B1/mult_50/U110
*1085 B1/mult_50/ab_0__2_
*1086 B1/mult_50/n110
*1087 B1/mult_50/U305
*1088 B1/mult_50/U304
*1089 B1/mult_50/U303
*1090 B1/mult_50/U302
*1091 B1/mult_50/U301
*1092 B1/mult_50/U300
*1093 B1/mult_50/U299
*1094 B1/mult_50/U313
*1095 B1/mult_50/U312
*1096 B1/mult_50/U311
*1097 B1/mult_50/U310
*1098 B1/mult_50/U309
*1099 B1/mult_50/U308
*1100 B1/mult_50/U307
*1101 B1/mult_50/U306
*1102 B1/mult_50/U320
*1103 B1/mult_50/U319
*1104 B1/mult_50/U318
*1105 B1/mult_50/U317
*1106 B1/mult_50/U316
*1107 B1/mult_50/U315
*1108 B1/mult_50/U314
*1109 B1/mult_50/U109
*1110 B1/mult_50/ab_0__3_
*1111 B1/mult_50/U42
*1112 B1/mult_50/U21
*1113 B1/mult_50/n109
*1114 B1/mult_50/U282
*1115 B1/mult_50/U281
*1116 B1/mult_50/U280
*1117 B1/mult_50/U279
*1118 B1/mult_50/U278
*1119 B1/mult_50/U277
*1120 B1/mult_50/U276
*1121 B1/mult_50/U290
*1122 B1/mult_50/U289
*1123 B1/mult_50/U288
*1124 B1/mult_50/U287
*1125 B1/mult_50/U286
*1126 B1/mult_50/U285
*1127 B1/mult_50/U284
*1128 B1/mult_50/U283
*1129 B1/mult_50/U297
*1130 B1/mult_50/U296
*1131 B1/mult_50/U295
*1132 B1/mult_50/U294
*1133 B1/mult_50/U293
*1134 B1/mult_50/U292
*1135 B1/mult_50/U291
*1136 B1/mult_50/U108
*1137 B1/mult_50/ab_0__4_
*1138 B1/mult_50/U41
*1139 B1/mult_50/U20
*1140 B1/mult_50/n108
*1141 B1/mult_50/U259
*1142 B1/mult_50/U258
*1143 B1/mult_50/U257
*1144 B1/mult_50/U256
*1145 B1/mult_50/U255
*1146 B1/mult_50/U254
*1147 B1/mult_50/U253
*1148 B1/mult_50/U267
*1149 B1/mult_50/U266
*1150 B1/mult_50/U265
*1151 B1/mult_50/U264
*1152 B1/mult_50/U263
*1153 B1/mult_50/U262
*1154 B1/mult_50/U261
*1155 B1/mult_50/U260
*1156 B1/mult_50/U274
*1157 B1/mult_50/U273
*1158 B1/mult_50/U272
*1159 B1/mult_50/U271
*1160 B1/mult_50/U270
*1161 B1/mult_50/U269
*1162 B1/mult_50/U268
*1163 B1/mult_50/U107
*1164 B1/mult_50/ab_0__5_
*1165 B1/mult_50/U40
*1166 B1/mult_50/U19
*1167 B1/mult_50/n107
*1168 B1/mult_50/U236
*1169 B1/mult_50/U235
*1170 B1/mult_50/U234
*1171 B1/mult_50/U233
*1172 B1/mult_50/U232
*1173 B1/mult_50/U231
*1174 B1/mult_50/U230
*1175 B1/mult_50/U244
*1176 B1/mult_50/U243
*1177 B1/mult_50/U242
*1178 B1/mult_50/U241
*1179 B1/mult_50/U240
*1180 B1/mult_50/U239
*1181 B1/mult_50/U238
*1182 B1/mult_50/U237
*1183 B1/mult_50/U251
*1184 B1/mult_50/U250
*1185 B1/mult_50/U249
*1186 B1/mult_50/U248
*1187 B1/mult_50/U247
*1188 B1/mult_50/U246
*1189 B1/mult_50/U245
*1190 B1/mult_50/U106
*1191 B1/mult_50/ab_0__6_
*1192 B1/mult_50/U39
*1193 B1/mult_50/U18
*1194 B1/mult_50/n106
*1195 B1/mult_50/U213
*1196 B1/mult_50/U212
*1197 B1/mult_50/U211
*1198 B1/mult_50/U210
*1199 B1/mult_50/U209
*1200 B1/mult_50/U208
*1201 B1/mult_50/U207
*1202 B1/mult_50/U221
*1203 B1/mult_50/U220
*1204 B1/mult_50/U219
*1205 B1/mult_50/U218
*1206 B1/mult_50/U217
*1207 B1/mult_50/U216
*1208 B1/mult_50/U215
*1209 B1/mult_50/U214
*1210 B1/mult_50/U228
*1211 B1/mult_50/U227
*1212 B1/mult_50/U226
*1213 B1/mult_50/U225
*1214 B1/mult_50/U224
*1215 B1/mult_50/U223
*1216 B1/mult_50/U222
*1217 B1/mult_50/U105
*1218 B1/mult_50/ab_0__7_
*1219 B1/mult_50/U38
*1220 B1/mult_50/U17
*1221 B1/mult_50/n105
*1222 B1/mult_50/U190
*1223 B1/mult_50/U189
*1224 B1/mult_50/U188
*1225 B1/mult_50/U187
*1226 B1/mult_50/U186
*1227 B1/mult_50/U185
*1228 B1/mult_50/U184
*1229 B1/mult_50/U198
*1230 B1/mult_50/U197
*1231 B1/mult_50/U196
*1232 B1/mult_50/U195
*1233 B1/mult_50/U194
*1234 B1/mult_50/U193
*1235 B1/mult_50/U192
*1236 B1/mult_50/U191
*1237 B1/mult_50/U205
*1238 B1/mult_50/U204
*1239 B1/mult_50/U203
*1240 B1/mult_50/U202
*1241 B1/mult_50/U201
*1242 B1/mult_50/U200
*1243 B1/mult_50/U199
*1244 B1/mult_50/U104
*1245 B1/mult_50/ab_0__8_
*1246 B1/mult_50/U37
*1247 B1/mult_50/U16
*1248 B1/mult_50/n104
*1249 B1/mult_50/U167
*1250 B1/mult_50/U166
*1251 B1/mult_50/U165
*1252 B1/mult_50/U164
*1253 B1/mult_50/U163
*1254 B1/mult_50/U162
*1255 B1/mult_50/U161
*1256 B1/mult_50/U175
*1257 B1/mult_50/U174
*1258 B1/mult_50/U173
*1259 B1/mult_50/U172
*1260 B1/mult_50/U171
*1261 B1/mult_50/U170
*1262 B1/mult_50/U169
*1263 B1/mult_50/U168
*1264 B1/mult_50/U182
*1265 B1/mult_50/U181
*1266 B1/mult_50/U180
*1267 B1/mult_50/U179
*1268 B1/mult_50/U178
*1269 B1/mult_50/U177
*1270 B1/mult_50/U176
*1271 B1/mult_50/U103
*1272 B1/mult_50/ab_0__9_
*1273 B1/mult_50/U36
*1274 B1/mult_50/U15
*1275 B1/mult_50/n113
*1276 B1/mult_50/U330
*1277 B1/mult_50/U112
*1278 B1/mult_50/n126
*1279 B1/mult_50/U322
*1280 B1/mult_50/U125
*1281 B1/mult_50/ab_10__0_
*1282 B1/mult_50/S1_10_0
*1283 B1/mult_50/ab_10__10_
*1284 B1/mult_50/S2_10_10
*1285 B1/mult_50/ab_10__11_
*1286 B1/mult_50/S2_10_11
*1287 B1/mult_50/ab_10__12_
*1288 B1/mult_50/S2_10_12
*1289 B1/mult_50/ab_10__13_
*1290 B1/mult_50/S2_10_13
*1291 B1/mult_50/ab_10__14_
*1292 B1/mult_50/S2_10_14
*1293 B1/mult_50/ab_10__15_
*1294 B1/mult_50/S2_10_15
*1295 B1/mult_50/ab_10__16_
*1296 B1/mult_50/S2_10_16
*1297 B1/mult_50/ab_10__17_
*1298 B1/mult_50/S2_10_17
*1299 B1/mult_50/ab_10__18_
*1300 B1/mult_50/S2_10_18
*1301 B1/mult_50/ab_10__19_
*1302 B1/mult_50/S2_10_19
*1303 B1/mult_50/ab_10__1_
*1304 B1/mult_50/S2_10_1
*1305 B1/mult_50/ab_10__20_
*1306 B1/mult_50/S2_10_20
*1307 B1/mult_50/ab_10__21_
*1308 B1/mult_50/S2_10_21
*1309 B1/mult_50/ab_10__22_
*1310 B1/mult_50/S3_10_22
*1311 B1/mult_50/ab_10__2_
*1312 B1/mult_50/S2_10_2
*1313 B1/mult_50/ab_10__3_
*1314 B1/mult_50/S2_10_3
*1315 B1/mult_50/ab_10__4_
*1316 B1/mult_50/S2_10_4
*1317 B1/mult_50/ab_10__5_
*1318 B1/mult_50/S2_10_5
*1319 B1/mult_50/ab_10__6_
*1320 B1/mult_50/S2_10_6
*1321 B1/mult_50/ab_10__7_
*1322 B1/mult_50/S2_10_7
*1323 B1/mult_50/ab_10__8_
*1324 B1/mult_50/S2_10_8
*1325 B1/mult_50/ab_10__9_
*1326 B1/mult_50/S2_10_9
*1327 B1/mult_50/n125
*1328 B1/mult_50/U343
*1329 B1/mult_50/U124
*1330 B1/mult_50/ab_11__0_
*1331 B1/mult_50/S1_11_0
*1332 B1/mult_50/ab_11__10_
*1333 B1/mult_50/S2_11_10
*1334 B1/mult_50/ab_11__11_
*1335 B1/mult_50/S2_11_11
*1336 B1/mult_50/ab_11__12_
*1337 B1/mult_50/S2_11_12
*1338 B1/mult_50/ab_11__13_
*1339 B1/mult_50/S2_11_13
*1340 B1/mult_50/ab_11__14_
*1341 B1/mult_50/S2_11_14
*1342 B1/mult_50/ab_11__15_
*1343 B1/mult_50/S2_11_15
*1344 B1/mult_50/ab_11__16_
*1345 B1/mult_50/S2_11_16
*1346 B1/mult_50/ab_11__17_
*1347 B1/mult_50/S2_11_17
*1348 B1/mult_50/ab_11__18_
*1349 B1/mult_50/S2_11_18
*1350 B1/mult_50/ab_11__19_
*1351 B1/mult_50/S2_11_19
*1352 B1/mult_50/ab_11__1_
*1353 B1/mult_50/S2_11_1
*1354 B1/mult_50/ab_11__20_
*1355 B1/mult_50/S2_11_20
*1356 B1/mult_50/ab_11__21_
*1357 B1/mult_50/S2_11_21
*1358 B1/mult_50/ab_11__22_
*1359 B1/mult_50/S3_11_22
*1360 B1/mult_50/ab_11__2_
*1361 B1/mult_50/S2_11_2
*1362 B1/mult_50/ab_11__3_
*1363 B1/mult_50/S2_11_3
*1364 B1/mult_50/ab_11__4_
*1365 B1/mult_50/S2_11_4
*1366 B1/mult_50/ab_11__5_
*1367 B1/mult_50/S2_11_5
*1368 B1/mult_50/ab_11__6_
*1369 B1/mult_50/S2_11_6
*1370 B1/mult_50/ab_11__7_
*1371 B1/mult_50/S2_11_7
*1372 B1/mult_50/ab_11__8_
*1373 B1/mult_50/S2_11_8
*1374 B1/mult_50/ab_11__9_
*1375 B1/mult_50/S2_11_9
*1376 B1/mult_50/n124
*1377 B1/mult_50/U342
*1378 B1/mult_50/U123